LTspice 24.0.12 for Windows
Circuit: * C:\Users\Dell\OneDrive\Desktop\LTSpice ecd\encore_new_!.asc
Start Time: Thu Sep 26 22:50:05 2024
solver = Normal
Maximum thread count: 8
tnom = 27
temp = 27
method = modified trap
Direct Newton iteration for .op point succeeded.
Total elapsed time: 17.075 seconds.

